<?xml version="1.0" encoding="UTF-8"?>
<edges xmlns:xsi="http://www.w3.org/2001/XMLSchema-instance" xsi:noNamespaceSchemaLocation="http://sumo.dlr.de/xsd/edges_file.xsd">
    <edge from="1" id="1to2" to="2" />
    <edge from="2" id="out" to="3" />
    <edge from="2" id="out" to="3" />
    <edge id="E1" from="J3" to="J4" />
    <edge id="E2" from="J4" to="J5" />
    <edge id="E3" from="J5" to="J6" />
    <edge id="E4" from="J6" to="J7" />
    <edge id="E5" from="J7" to="J8" />
    <edge id="E6" from="J8" to="J9" />
    <edge id="out" from="2" to="3" />
</edges>
